!UKS wB97X-D4 EPR-III TightSCF

# FAD Opt hydrogen position

%pal
   nprocs 24
end

*xyz -1 2
N       -1.44910929       2.45682696       0.04714441
C       -0.79939824       3.65018192       0.02793392
O       -1.36283143       4.74306657       0.04244211
N        0.59503862       3.62101175      -0.01096827
C        1.41615850       2.50143785      -0.03227457
O        2.63399094       2.63776196      -0.06591721
C        0.68052887       1.24629698      -0.01139431
N        1.37266579       0.08286413      -0.03005704
C        0.64491416      -1.05672066      -0.01002260
C        1.30451618      -2.30134507      -0.02874900
C        0.62954209      -3.50936860      -0.01103714
C        1.39476090      -4.80903163      -0.03217088
C       -0.77161632      -3.50680028       0.02702427
C       -1.54829900      -4.79823278       0.04681639
C       -1.44926042      -2.28630996       0.04635646
C       -0.77284280      -1.07119517       0.02916144
N       -1.44302631       0.15103230       0.04958281
C       -0.73132358       1.34293713       0.02812803
C       -2.88989218       0.16594701       0.08764209
H        1.05861141       4.51578033      -0.02412850
H        2.38926924      -2.27264303      -0.05839870
H        2.47014003      -4.62265048      -0.05893608
H        1.13610042      -5.41586440      -0.90687141
H        1.18017944      -5.41793913       0.85289207
H       -1.34251114      -5.40962859      -0.83917460
H       -2.62311197      -4.60511089       0.07539243
H       -1.29603905      -5.41123278       0.91960783
H       -2.53205444      -2.30103704       0.07570838
H       -3.25407385      -0.34627691       0.98501152
H       -3.21170452       1.20301368       0.09995985
H       -3.30053392      -0.34044177      -0.79306288
*

%EPRNMR
    GTENSOR   TRUE
    NUCLEI    = ALL H {AISO, ADIP, AORB}
    NUCLEI    = ALL N {AISO, ADIP, AORB}
END
