31
Coordinates from ORCA-job flavin-opt E -872.845986916595
  N          -1.45610025264583      2.44909291719857      0.02122577307400
  C          -0.80764079487732      3.64416603108073      0.00847985898056
  O          -1.37259228688706      4.73588293814567      0.03857371160892
  N           0.58634186428987      3.61798524226354     -0.04728270037958
  C           1.41034731097021      2.50035390804835     -0.06797805125185
  O           2.62771572632322      2.63930453592526     -0.10734185207766
  C           0.67716303131876      1.24414683335575     -0.03602462144031
  N           1.37048542592240      0.08209004720024     -0.02531592707084
  C           0.64171962441373     -1.05718190206641     -0.00149982508898
  C           1.30489207285818     -2.30039209826339      0.00787178197608
  C           0.63467828709202     -3.51026766408346      0.00791714213218
  C           1.40366579285476     -4.80757949863245      0.01864985168733
  C          -0.76752581781106     -3.51140297849645     -0.01149185315133
  C          -1.54040763611418     -4.80503919769388     -0.03453062416856
  C          -1.44703944991650     -2.29301786225538     -0.01499647609604
  C          -0.77633218756242     -1.07434069672005      0.01155107235968
  N          -1.45259583367085      0.14847088142480      0.00880762598533
  C          -0.73445691149530      1.33777421653524      0.00019890555658
  C          -2.87193681875454      0.19113136686003      0.31177285002694
  H           1.04844673518919      4.51352397191082     -0.06267757654121
  H           2.38994639561789     -2.26723381575921      0.01140129274155
  H           2.47875219323772     -4.61815989280859      0.03325094458380
  H           1.18074975263499     -5.41625214380336     -0.86454263209761
  H           1.15645684317765     -5.41592967529765      0.89559589541388
  H          -1.28834232230737     -5.41392446793333     -0.91013707436181
  H          -2.61591175678074     -4.61527471323911     -0.05941604129167
  H          -1.33049701204587     -5.41916638158514      0.84869471223934
  H          -2.52968847902121     -2.31189400738563     -0.05743510477738
  H          -3.13201150871437     -0.63282553439784      0.97735501607058
  H          -3.08662588396896      1.14367440809338      0.79030430904394
  H          -3.48188610332700      0.14246523237897     -0.59706038368582
