27
Coordinates from ORCA-job TrpC-opt-dihedral E -686.635097037982
  N          13.18158157699490    -15.33354250513878      6.35219740213657
  C          13.05739265310285    -15.41700858713962      4.90669043278498
  C          14.33978889931763    -15.88465808117968      4.22346214433604
  O          15.41232508329996    -15.90328999649573      4.75952386386239
  C          12.68330814498042    -14.02267021120966      4.34145706522030
  C          11.48796395481118    -13.53424630973168      5.07207022211743
  C          11.52681480849842    -12.74878701057600      6.26745788952753
  C          10.13667135563187    -13.89739887210572      4.89367886937991
  N          10.30853990798930    -12.62313751436544      6.76294689334893
  C           9.39205881476905    -13.32436198032404      5.94930793998174
  C           9.47354657907205    -14.66644800300364      3.92069529375460
  C           8.03924866399249    -13.48176377267659      6.08214463615232
  C           8.10469839673629    -14.83683174515524      4.04005791001195
  C           7.40194129782066    -14.25567953887845      5.09848900530490
  O          14.12147805847363    -16.23086058023343      2.94588107116450
  H          14.96805659752066    -16.49441794360432      2.55223833827715
  H          14.14151588486757    -15.09895184168100      6.59172083302367
  H          12.99830922940784    -16.23267007293069      6.78047241750752
  H          12.25793798115621    -16.11602653619656      4.64913467132688
  H          12.48771401550131    -14.09255037667861      3.26970953688599
  H          13.52281211578181    -13.33791289128394      4.48994133473533
  H          12.38993150589279    -12.30452768991126      6.74264479258225
  H          10.07329375971473    -12.11569059385855      7.60336541245444
  H          10.01978930388182    -15.10860160991008      3.09510861119611
  H           7.47669192132137    -13.04127330127915      6.89686306524665
  H           7.56690313514085    -15.42331943452140      3.30536346955566
  H           6.33020414042779    -14.40382386097358      5.16589199804746
