27
Properties=species:S:1:pos:R:3 Coordinates=T from=T ORCA-job=T TrpD-opt-dihedral=T E=T -686.632161869697=T pbc="F F F"
N        9.13550788     -16.82025191      -0.68031967
C        9.67414938     -16.85833920       0.66044269
C       10.85174920     -15.92279520       0.88042528
O       11.70122216     -16.13247980       1.71226721
C       10.12738538     -18.29565365       1.02460621
C       10.08815075     -18.53783527       2.48684086
C       11.24418843     -18.60383532       3.32991432
C        8.97480162     -18.60015251       3.35485720
N       10.87417430     -18.71606473       4.59240272
C        9.46416254     -18.71728005       4.67522790
C        7.58604442     -18.58191279       3.13724799
C        8.64978419     -18.80755802       5.77171386
C        6.74668054     -18.67030421       4.23480183
C        7.26799740     -18.78041569       5.52626417
O       10.81722745     -14.83722943       0.10940490
H       11.57943551     -14.27774580       0.32614492
H        9.16465622     -15.89002451      -1.07641092
H        8.18241083     -17.15577166      -0.71296050
H        8.94410562     -16.53138797       1.42046663
H       11.11852314     -18.49004317       0.61626997
H        9.42898326     -18.97951435       0.53283155
H       12.28183192     -18.55287721       3.03186281
H       11.50505459     -18.77472963       5.37853898
H        7.18136970     -18.50876390       2.13431505
H        9.03621818     -18.89579942       6.78024765
H        5.67260902     -18.65884410       4.09606946
H        6.58749924     -18.84996534       6.36716644
