27
Coordinates from ORCA-job TrpD-opt-dihedral E -686.632161869697
  N           9.10668899338005    -16.80126618596597     -0.66000230302900
  C           9.64010333625843    -16.84058808218606      0.68281262998597
  C          10.80075536605367    -15.88702821287382      0.91516297441374
  O          11.65005269718531    -16.08875138720796      1.74915022584535
  C          10.11600073270647    -18.27281281254886      1.03800943010993
  C          10.07455338129241    -18.52688146001690      2.49816446222506
  C          11.22789076912521    -18.57985810969832      3.34584265631835
  C           8.95867958236762    -18.61466372661085      3.36071996459389
  N          10.85437945827703    -18.70803970622585      4.60577981032398
  C           9.44424534326309    -18.73368675959969      4.68232171343679
  C           7.57076504216934    -18.61818554126310      3.13708217989520
  C           8.62678307687179    -18.84614022586700      5.77445418359520
  C           6.72828454591698    -18.72918264231875      4.23018576341001
  C           7.24580757963701    -18.84042882788107      5.52307593576261
  O          10.75121270975044    -14.79629102472694      0.15230313143259
  H          11.50290884590428    -14.22571150641553      0.37669392386954
  H           9.12181439909645    -15.86765507492105     -1.04884987557369
  H           8.15955114155063    -17.15256008937005     -0.69944095309580
  H           8.90136088160247    -16.53186854723990      1.44205515028802
  H          11.11203750221548    -18.44729730150106      0.63261364045110
  H           9.43139139288084    -18.96455211647622      0.53792936451781
  H          12.26580154493002    -18.50910215715268      3.05280637867546
  H          11.48276124142306    -18.76210572843956      5.39424346423345
  H           7.16924556508772    -18.54415041149660      2.13294684620470
  H           9.01029561646034    -18.93561624306433      6.78399385695415
  H           5.65478182757677    -18.73478037854307      4.08676951750600
  H           6.56295818594461    -18.92792904256766      6.36038826621757
